* Test.qsch
V2 N01 0 SIN 0 60 100
L1 N01 N02 {LVAL} ISAT =5 SAT=10Á
R1 0 N02 1
.tran 30m
.param LVAL  = 0.073734693877551 
.end
