* Test.qsch
V2 N01 0 SIN 0 60 100
L1 N01 N02 L = 1m ISAT ={ISATVAL} SAT=10Á
R1 0 N02 1
.tran 30m
.param ISATVAL  = 7 
.end
