* Test.qsch
V2 N01 0 SIN 0 60 100
L1 N01 N02 L = {LVAL} ISAT =2 SAT=10Á
R1 0 N02 1
.tran 30m
.param LVAL  = 0.047469387755102 
.end
